MODEL        2
REMARK  Name = 10466307
REMARK  6 active torsions:
REMARK  status: ('A' for Active; 'I' for Inactive)
REMARK    1  A    between atoms: O_2  and  C_9
REMARK    2  A    between atoms: O_3  and  C_11
REMARK    3  A    between atoms: O_4  and  C_15
REMARK    4  A    between atoms: O_4  and  C_16
REMARK    5  A    between atoms: C_8  and  C_13
REMARK    6  A    between atoms: C_12  and  C_15
REMARK                            x       y       z     vdW  Elec       q    Type
REMARK                         _______ _______ _______ _____ _____    ______ ____
ROOT
ATOM      1  O   UNL     1      -0.493  -2.287  -0.657  0.00  0.00    +0.000 OA
ATOM      2  C   UNL     1      -1.389  -0.294   0.519  0.00  0.00    +0.000 C 
ATOM      3  C   UNL     1       0.013   0.365   0.533  0.00  0.00    +0.000 C 
ATOM      4  C   UNL     1      -2.104   0.396  -0.657  0.00  0.00    +0.000 C 
ATOM      5  C   UNL     1      -1.668   1.853  -0.485  0.00  0.00    +0.000 C 
ATOM      6  C   UNL     1      -0.185   1.752  -0.126  0.00  0.00    +0.000 C 
ATOM      7  C   UNL     1      -1.317  -1.822   0.420  0.00  0.00    +0.000 C 
ATOM      8  C   UNL     1       1.021  -0.473  -0.201  0.00  0.00    +0.000 C 
ATOM      9  C   UNL     1      -3.615   0.202  -0.644  0.00  0.00    +0.000 C 
ATOM     10  C   UNL     1       0.721  -1.657  -0.747  0.00  0.00    +0.000 C 
ENDROOT
BRANCH   5  11
ATOM     11  O   UNL     1      -2.376   2.472   0.584  0.00  0.00    +0.000 OA
ATOM     12  H   UNL     1      -2.039   3.381   0.669  0.00  0.00    +0.000 HD
ENDBRANCH   5  11
BRANCH   7  13
ATOM     13  O   UNL     1      -0.857  -2.334   1.675  0.00  0.00    +0.000 OA
ATOM     14  H   UNL     1      -0.189  -1.731   2.039  0.00  0.00    +0.000 HD
ENDBRANCH   7  13
BRANCH   8  16
ATOM     15  O   UNL     1       3.108  -0.271  -1.305  0.00  0.00    +0.000 OA
ATOM     16  C   UNL     1       2.397   0.004  -0.351  0.00  0.00    +0.000 C 
BRANCH  16  17
ATOM     17  O   UNL     1       2.710   0.774   0.722  0.00  0.00    +0.000 OA
ATOM     18  C   UNL     1       4.034   1.320   0.720  0.00  0.00    +0.000 C 
ENDBRANCH  16  17
ENDBRANCH   8  16
TORSDOF 4
ENDMDL
