MODEL        2
REMARK  Name = 10466307
REMARK  6 active torsions:
REMARK  status: ('A' for Active; 'I' for Inactive)
REMARK    1  A    between atoms: O_2  and  C_9
REMARK    2  A    between atoms: O_3  and  C_11
REMARK    3  A    between atoms: O_4  and  C_15
REMARK    4  A    between atoms: O_4  and  C_16
REMARK    5  A    between atoms: C_8  and  C_13
REMARK    6  A    between atoms: C_12  and  C_15
REMARK                            x       y       z     vdW  Elec       q    Type
REMARK                         _______ _______ _______ _____ _____    ______ ____
ROOT
ATOM      1  O   UNL     1      56.990  33.730  76.356  0.00  0.00    +0.000 OA
ATOM      2  C   UNL     1      59.369  33.811  75.654  0.00  0.00    +0.000 C 
ATOM      3  C   UNL     1      59.751  32.757  76.723  0.00  0.00    +0.000 C 
ATOM      4  C   UNL     1      59.278  32.994  74.353  0.00  0.00    +0.000 C 
ATOM      5  C   UNL     1      60.488  32.064  74.476  0.00  0.00    +0.000 C 
ATOM      6  C   UNL     1      60.470  31.630  75.942  0.00  0.00    +0.000 C 
ATOM      7  C   UNL     1      58.094  34.580  76.020  0.00  0.00    +0.000 C 
ATOM      8  C   UNL     1      58.540  32.255  77.457  0.00  0.00    +0.000 C 
ATOM      9  C   UNL     1      59.291  33.854  73.096  0.00  0.00    +0.000 C 
ATOM     10  C   UNL     1      57.306  32.716  77.223  0.00  0.00    +0.000 C 
ENDROOT
BRANCH   5  11
ATOM     11  O   UNL     1      61.697  32.764  74.201  0.00  0.00    +0.000 OA
ATOM     12  H   UNL     1      62.111  32.340  73.429  0.00  0.00    +0.000 HD
ENDBRANCH   5  11
BRANCH   7  13
ATOM     13  O   UNL     1      58.399  35.474  77.095  0.00  0.00    +0.000 OA
ATOM     14  H   UNL     1      59.359  35.611  77.132  0.00  0.00    +0.000 HD
ENDBRANCH   7  13
BRANCH   8  16
ATOM     15  O   UNL     1      57.766  30.827  79.182  0.00  0.00    +0.000 OA
ATOM     16  C   UNL     1      58.683  31.210  78.472  0.00  0.00    +0.000 C 
BRANCH  16  17
ATOM     17  O   UNL     1      59.967  30.770  78.467  0.00  0.00    +0.000 OA
ATOM     18  C   UNL     1      60.755  31.165  79.596  0.00  0.00    +0.000 C 
ENDBRANCH  16  17
ENDBRANCH   8  16
TORSDOF 4
ENDMDL
