MODEL        3
REMARK  Name = 161313
REMARK  3 active torsions:
REMARK  status: ('A' for Active; 'I' for Inactive)
REMARK    1  A    between atoms: N_1  and  C_10
REMARK    2  A    between atoms: C_4  and  C_9
REMARK    3  A    between atoms: C_14  and  C_15
REMARK                            x       y       z     vdW  Elec       q    Type
REMARK                         _______ _______ _______ _____ _____    ______ ____
ROOT
ATOM      1  N   UNL     1      -0.999   0.696  -1.074  0.00  0.00    +0.000 NA
ATOM      2  C   UNL     1       1.182   0.055  -0.285  0.00  0.00    +0.000 A 
ATOM      3  C   UNL     1       0.619  -0.680   0.743  0.00  0.00    +0.000 A 
ATOM      4  C   UNL     1       0.350   0.720  -1.161  0.00  0.00    +0.000 A 
ATOM      5  C   UNL     1      -0.766  -0.729   0.865  0.00  0.00    +0.000 A 
ATOM      6  C   UNL     1      -1.523  -0.030  -0.061  0.00  0.00    +0.000 A 
ENDROOT
BRANCH   2   8
ATOM      7  N   UNL     1       3.380   0.722   0.736  0.00  0.00    +0.000 NA
ATOM      8  C   UNL     1       2.701   0.129  -0.446  0.00  0.00    +0.000 C 
ATOM      9  C   UNL     1       3.235  -1.290  -0.753  0.00  0.00    +0.000 C 
ATOM     10  C   UNL     1       4.750  -1.309  -0.902  0.00  0.00    +0.000 C 
ATOM     11  C   UNL     1       5.398  -0.684   0.324  0.00  0.00    +0.000 C 
ATOM     12  C   UNL     1       4.846   0.717   0.574  0.00  0.00    +0.000 C 
ATOM     13  C   UNL     1       2.942   2.101   0.987  0.00  0.00    +0.000 C 
ENDBRANCH   2   8
BRANCH   6  15
ATOM     14  N   UNL     1      -5.000  -1.198   0.600  0.00  0.00    +0.000 NA
ATOM     15  C   UNL     1      -2.966  -0.036   0.003  0.00  0.00    +0.000 A 
ATOM     16  C   UNL     1      -3.708   1.050  -0.445  0.00  0.00    +0.000 A 
ATOM     17  C   UNL     1      -3.653  -1.126   0.512  0.00  0.00    +0.000 A 
ATOM     18  C   UNL     1      -5.097   1.014  -0.371  0.00  0.00    +0.000 A 
ATOM     19  C   UNL     1      -5.689  -0.122   0.155  0.00  0.00    +0.000 A 
ENDBRANCH   6  15
TORSDOF 2
ENDMDL
