MODEL        6
REMARK  Name = 5281426
REMARK  1 active torsions:
REMARK  status: ('A' for Active; 'I' for Inactive)
REMARK    1  A    between atoms: O_2  and  C_9
REMARK                            x       y       z     vdW  Elec       q    Type
REMARK                         _______ _______ _______ _____ _____    ______ ____
ROOT
ATOM      1  O   UNL     1      -1.195   1.174  -0.001  0.00  0.00    +0.000 OA
ATOM      2  O   UNL     1      -3.486   1.168   0.001  0.00  0.00    +0.000 OA
ATOM      3  C   UNL     1      -0.007  -0.951  -0.000  0.00  0.00    +0.000 A 
ATOM      4  C   UNL     1       0.010   0.442  -0.000  0.00  0.00    +0.000 A 
ATOM      5  C   UNL     1       1.208  -1.640   0.000  0.00  0.00    +0.000 A 
ATOM      6  C   UNL     1       1.204   1.161  -0.000  0.00  0.00    +0.000 A 
ATOM      7  C   UNL     1      -1.288  -1.636   0.000  0.00  0.00    +0.000 A 
ATOM      8  C   UNL     1       2.410   0.465   0.000  0.00  0.00    +0.000 A 
ATOM      9  C   UNL     1       2.413  -0.932   0.000  0.00  0.00    +0.000 A 
ATOM     10  C   UNL     1      -2.425  -0.935   0.000  0.00  0.00    +0.000 A 
ATOM     11  C   UNL     1      -2.433   0.539  -0.001  0.00  0.00    +0.000 A 
ENDROOT
BRANCH   8  12
ATOM     12  O   UNL     1       3.589   1.146   0.001  0.00  0.00    +0.000 OA
ATOM     13  H   UNL     1       4.322   0.507   0.001  0.00  0.00    +0.000 HD
ENDBRANCH   8  12
TORSDOF 1
ENDMDL
