REMARK SMILES COC(=O)C1=CO[C@@H](O)[C@@H]2[C@@H](C)[C@@H](O)C[C@H]12
REMARK SMILES IDX 4 1 3 2 5 3 7 4 8 5 6 6 10 7 16 8 11 9 15 10 13 11 9 20
REMARK SMILES IDX 12 22 14 26 2 28 1 29
REMARK H PARENT 8 12 6 13 10 14 16 15 11 16 15 17 15 18 13 19 9 21 12 23 12 24
REMARK H PARENT 12 25 14 27 1 30 1 31 1 32
ROOT
ATOM      1  O   UNL     1       3.108  -0.271  -1.305  1.00  0.00    -0.246 OA
ATOM      2  C   UNL     1       2.397   0.004  -0.351  1.00  0.00     0.337 C 
ENDROOT
BRANCH   2   3
ATOM      3  C   UNL     1       1.021  -0.473  -0.201  1.00  0.00     0.075 C 
ATOM      4  O   UNL     1      -0.493  -2.287  -0.657  1.00  0.00    -0.472 OA
ATOM      5  C   UNL     1      -1.317  -1.822   0.420  1.00  0.00     0.200 C 
ATOM      6  C   UNL     1       0.721  -1.657  -0.747  1.00  0.00     0.097 C 
ATOM      7  C   UNL     1      -1.389  -0.294   0.519  1.00  0.00     0.034 C 
ATOM      8  C   UNL     1       0.013   0.365   0.533  1.00  0.00     0.006 C 
ATOM      9  C   UNL     1      -2.104   0.396  -0.657  1.00  0.00    -0.009 C 
ATOM     10  C   UNL     1      -0.185   1.752  -0.126  1.00  0.00    -0.019 C 
ATOM     11  C   UNL     1      -1.668   1.853  -0.485  1.00  0.00     0.058 C 
ATOM     12  H   UNL     1      -2.314  -2.243   0.264  1.00  0.00     0.107 H 
ATOM     13  H   UNL     1       1.400  -2.256  -1.338  1.00  0.00     0.104 H 
ATOM     14  H   UNL     1      -1.897  -0.027   1.457  1.00  0.00     0.038 H 
ATOM     15  H   UNL     1       0.334   0.486   1.575  1.00  0.00     0.036 H 
ATOM     16  H   UNL     1      -1.711   0.019  -1.611  1.00  0.00     0.033 H 
ATOM     17  H   UNL     1       0.124   2.548   0.561  1.00  0.00     0.030 H 
ATOM     18  H   UNL     1       0.414   1.849  -1.038  1.00  0.00     0.030 H 
ATOM     19  H   UNL     1      -1.836   2.442  -1.392  1.00  0.00     0.060 H 
BRANCH   5  20
ATOM     20  O   UNL     1      -0.857  -2.334   1.675  1.00  0.00    -0.358 OA
ATOM     21  H   UNL     1      -0.189  -1.731   2.039  1.00  0.00     0.215 HD
ENDBRANCH   5  20
BRANCH   9  22
ATOM     22  C   UNL     1      -3.615   0.202  -0.644  1.00  0.00    -0.060 C 
ATOM     23  H   UNL     1      -4.054   0.473   0.321  1.00  0.00     0.023 H 
ATOM     24  H   UNL     1      -4.087   0.817  -1.417  1.00  0.00     0.023 H 
ATOM     25  H   UNL     1      -3.875  -0.842  -0.846  1.00  0.00     0.023 H 
ENDBRANCH   9  22
BRANCH  11  26
ATOM     26  O   UNL     1      -2.376   2.472   0.584  1.00  0.00    -0.393 OA
ATOM     27  H   UNL     1      -2.039   3.381   0.669  1.00  0.00     0.210 HD
ENDBRANCH  11  26
ENDBRANCH   2   3
BRANCH   2  28
ATOM     28  O   UNL     1       2.710   0.774   0.722  1.00  0.00    -0.466 OA
BRANCH  28  29
ATOM     29  C   UNL     1       4.034   1.320   0.720  1.00  0.00     0.081 C 
ATOM     30  H   UNL     1       4.158   1.912   1.631  1.00  0.00     0.067 H 
ATOM     31  H   UNL     1       4.172   1.973  -0.146  1.00  0.00     0.067 H 
ATOM     32  H   UNL     1       4.775   0.515   0.721  1.00  0.00     0.067 H 
ENDBRANCH  28  29
ENDBRANCH   2  28
TORSDOF 6
