REMARK SMILES CN1CCCC[C@H]1c1ccc(-c2cccnc2)nc1
REMARK SMILES IDX 2 1 7 2 6 3 5 4 4 5 3 6 1 16 8 20 9 21 19 22 10 23 18 24
REMARK SMILES IDX 11 25 12 29 13 30 17 31 14 32 16 33 15 34
REMARK H PARENT 7 7 6 8 6 9 5 10 5 11 4 12 4 13 3 14 3 15 1 17 1 18 1 19 9 26
REMARK H PARENT 19 27 10 28 13 35 17 36 14 37 15 38
ROOT
ATOM      1  N   UNL     1       3.380   0.722   0.736  1.00  0.00    -0.299 NA
ATOM      2  C   UNL     1       2.701   0.129  -0.446  1.00  0.00     0.036 C 
ATOM      3  C   UNL     1       3.235  -1.290  -0.753  1.00  0.00    -0.033 C 
ATOM      4  C   UNL     1       4.750  -1.309  -0.902  1.00  0.00    -0.050 C 
ATOM      5  C   UNL     1       5.398  -0.684   0.324  1.00  0.00    -0.040 C 
ATOM      6  C   UNL     1       4.846   0.717   0.574  1.00  0.00    -0.002 C 
ATOM      7  H   UNL     1       2.926   0.756  -1.321  1.00  0.00     0.052 H 
ATOM      8  H   UNL     1       2.778  -1.671  -1.676  1.00  0.00     0.029 H 
ATOM      9  H   UNL     1       2.958  -1.994   0.043  1.00  0.00     0.029 H 
ATOM     10  H   UNL     1       5.041  -0.753  -1.801  1.00  0.00     0.027 H 
ATOM     11  H   UNL     1       5.102  -2.339  -1.030  1.00  0.00     0.027 H 
ATOM     12  H   UNL     1       5.218  -1.317   1.202  1.00  0.00     0.028 H 
ATOM     13  H   UNL     1       6.483  -0.634   0.182  1.00  0.00     0.028 H 
ATOM     14  H   UNL     1       5.317   1.105   1.486  1.00  0.00     0.043 H 
ATOM     15  H   UNL     1       5.145   1.377  -0.251  1.00  0.00     0.043 H 
ENDROOT
BRANCH   1  16
ATOM     16  C   UNL     1       2.942   2.101   0.987  1.00  0.00    -0.013 C 
ATOM     17  H   UNL     1       3.121   2.754   0.125  1.00  0.00     0.039 H 
ATOM     18  H   UNL     1       3.470   2.521   1.851  1.00  0.00     0.039 H 
ATOM     19  H   UNL     1       1.877   2.145   1.240  1.00  0.00     0.039 H 
ENDBRANCH   1  16
BRANCH   2  20
ATOM     20  C   UNL     1       1.182   0.055  -0.285  1.00  0.00    -0.012 A 
ATOM     21  C   UNL     1       0.619  -0.680   0.743  1.00  0.00    -0.054 A 
ATOM     22  C   UNL     1       0.350   0.720  -1.161  1.00  0.00     0.032 A 
ATOM     23  C   UNL     1      -0.766  -0.729   0.865  1.00  0.00    -0.035 A 
ATOM     24  N   UNL     1      -0.999   0.696  -1.074  1.00  0.00    -0.256 NA
ATOM     25  C   UNL     1      -1.523  -0.030  -0.061  1.00  0.00     0.072 A 
ATOM     26  H   UNL     1       1.233  -1.209   1.466  1.00  0.00     0.063 H 
ATOM     27  H   UNL     1       0.739   1.311  -1.984  1.00  0.00     0.084 H 
ATOM     28  H   UNL     1      -1.197  -1.288   1.688  1.00  0.00     0.065 H 
BRANCH  25  29
ATOM     29  C   UNL     1      -2.966  -0.036   0.003  1.00  0.00     0.018 A 
ATOM     30  C   UNL     1      -3.708   1.050  -0.445  1.00  0.00    -0.050 A 
ATOM     31  C   UNL     1      -3.653  -1.126   0.512  1.00  0.00     0.036 A 
ATOM     32  C   UNL     1      -5.097   1.014  -0.371  1.00  0.00    -0.043 A 
ATOM     33  N   UNL     1      -5.000  -1.198   0.600  1.00  0.00    -0.264 NA
ATOM     34  C   UNL     1      -5.689  -0.122   0.155  1.00  0.00     0.027 A 
ATOM     35  H   UNL     1      -3.235   1.943  -0.847  1.00  0.00     0.063 H 
ATOM     36  H   UNL     1      -3.155  -2.026   0.860  1.00  0.00     0.085 H 
ATOM     37  H   UNL     1      -5.696   1.851  -0.711  1.00  0.00     0.064 H 
ATOM     38  H   UNL     1      -6.768  -0.200   0.235  1.00  0.00     0.084 H 
ENDBRANCH  25  29
ENDBRANCH   2  20
TORSDOF 3
