REMARK SMILES O=c1c(O)c(-c2ccc(O)cc2)oc2cc(O)cc(O)c12
REMARK SMILES IDX 13 1 1 2 21 3 14 4 5 5 2 6 3 7 19 8 15 9 16 10 18 11 6 14
REMARK SMILES IDX 7 15 12 16 8 17 11 18 9 19 10 24 4 26 20 28 17 30
REMARK H PARENT 15 12 18 13 7 20 12 21 8 22 11 23 10 25 4 27 20 29 17 31
ROOT
ATOM      1  O   UNL     1      -0.113  -0.891  -0.002  1.00  0.00    -0.452 OA
ATOM      2  O   UNL     1      -1.778   2.828  -0.005  1.00  0.00    -0.285 OA
ATOM      3  C   UNL     1      -2.107   0.493   0.001  1.00  0.00     0.111 A 
ATOM      4  C   UNL     1      -1.476  -0.749   0.000  1.00  0.00     0.146 A 
ATOM      5  C   UNL     1       0.671   0.252   0.010  1.00  0.00     0.180 A 
ATOM      6  C   UNL     1      -1.281   1.710  -0.000  1.00  0.00     0.238 A 
ATOM      7  C   UNL     1       0.188   1.508   0.003  1.00  0.00     0.208 A 
ATOM      8  C   UNL     1      -3.502   0.576   0.002  1.00  0.00     0.134 A 
ATOM      9  C   UNL     1      -2.238  -1.919  -0.001  1.00  0.00     0.024 A 
ATOM     10  C   UNL     1      -3.630  -1.840   0.000  1.00  0.00     0.123 A 
ATOM     11  C   UNL     1      -4.261  -0.595   0.002  1.00  0.00     0.023 A 
ATOM     12  H   UNL     1      -1.749  -2.889  -0.002  1.00  0.00     0.070 H 
ATOM     13  H   UNL     1      -5.347  -0.531   0.002  1.00  0.00     0.070 H 
ENDROOT
BRANCH   5  14
ATOM     14  C   UNL     1       2.115  -0.041   0.006  1.00  0.00     0.021 A 
ATOM     15  C   UNL     1       2.804  -0.171   1.212  1.00  0.00    -0.047 A 
ATOM     16  C   UNL     1       2.793  -0.190  -1.204  1.00  0.00    -0.047 A 
ATOM     17  C   UNL     1       4.171  -0.449   1.208  1.00  0.00    -0.019 A 
ATOM     18  C   UNL     1       4.160  -0.468  -1.208  1.00  0.00    -0.019 A 
ATOM     19  C   UNL     1       4.849  -0.597  -0.001  1.00  0.00     0.115 A 
ATOM     20  H   UNL     1       2.289  -0.058   2.163  1.00  0.00     0.063 H 
ATOM     21  H   UNL     1       2.270  -0.092  -2.152  1.00  0.00     0.063 H 
ATOM     22  H   UNL     1       4.696  -0.547   2.155  1.00  0.00     0.066 H 
ATOM     23  H   UNL     1       4.683  -0.583  -2.153  1.00  0.00     0.066 H 
BRANCH  19  24
ATOM     24  O   UNL     1       6.183  -0.869  -0.005  1.00  0.00    -0.508 OA
ATOM     25  H   UNL     1       6.495  -0.925   0.914  1.00  0.00     0.293 HD
ENDBRANCH  19  24
ENDBRANCH   5  14
BRANCH   7  26
ATOM     26  O   UNL     1       0.996   2.625  -0.019  1.00  0.00    -0.502 OA
ATOM     27  H   UNL     1       1.929   2.357  -0.019  1.00  0.00     0.293 HD
ENDBRANCH   7  26
BRANCH   8  28
ATOM     28  O   UNL     1      -4.167   1.765   0.003  1.00  0.00    -0.507 OA
ATOM     29  H   UNL     1      -3.541   2.505   0.007  1.00  0.00     0.293 HD
ENDBRANCH   8  28
BRANCH  10  30
ATOM     30  O   UNL     1      -4.376  -2.979  -0.001  1.00  0.00    -0.508 OA
ATOM     31  H   UNL     1      -5.318  -2.739   0.000  1.00  0.00     0.293 HD
ENDBRANCH  10  30
TORSDOF 5
