REMARK SMILES O=c1c(O)c(-c2ccc(O)c(O)c2)oc2cc(O)cc(O)c12
REMARK SMILES IDX 14 1 1 2 22 3 15 4 5 5 3 6 2 7 20 8 16 9 17 10 19 11 6 14
REMARK SMILES IDX 13 15 7 16 11 17 8 18 9 19 12 23 10 25 4 27 21 29 18 31
REMARK H PARENT 16 12 19 13 13 20 7 21 8 22 12 24 10 26 4 28 21 30 18 32
ROOT
ATOM      1  O   UNL     1      -0.326  -0.866  -0.125  1.00  0.00    -0.452 OA
ATOM      2  O   UNL     1      -2.041   2.825   0.085  1.00  0.00    -0.285 OA
ATOM      3  C   UNL     1      -2.336   0.486   0.023  1.00  0.00     0.111 A 
ATOM      4  C   UNL     1      -1.689  -0.746  -0.052  1.00  0.00     0.146 A 
ATOM      5  C   UNL     1       0.442   0.288  -0.110  1.00  0.00     0.180 A 
ATOM      6  C   UNL     1      -0.058   1.536  -0.049  1.00  0.00     0.208 A 
ATOM      7  C   UNL     1      -1.528   1.715   0.026  1.00  0.00     0.238 A 
ATOM      8  C   UNL     1      -3.730   0.547   0.094  1.00  0.00     0.134 A 
ATOM      9  C   UNL     1      -2.433  -1.926  -0.059  1.00  0.00     0.024 A 
ATOM     10  C   UNL     1      -3.826  -1.869   0.012  1.00  0.00     0.123 A 
ATOM     11  C   UNL     1      -4.472  -0.634   0.088  1.00  0.00     0.023 A 
ATOM     12  H   UNL     1      -1.932  -2.888  -0.118  1.00  0.00     0.070 H 
ATOM     13  H   UNL     1      -5.558  -0.588   0.143  1.00  0.00     0.070 H 
ENDROOT
BRANCH   5  14
ATOM     14  C   UNL     1       1.888   0.018  -0.193  1.00  0.00     0.025 A 
ATOM     15  C   UNL     1       2.636  -0.143   0.973  1.00  0.00    -0.005 A 
ATOM     16  C   UNL     1       2.509  -0.077  -1.439  1.00  0.00    -0.047 A 
ATOM     17  C   UNL     1       4.005  -0.400   0.894  1.00  0.00     0.158 A 
ATOM     18  C   UNL     1       3.878  -0.333  -1.518  1.00  0.00    -0.016 A 
ATOM     19  C   UNL     1       4.626  -0.494  -0.352  1.00  0.00     0.157 A 
ATOM     20  H   UNL     1       2.160  -0.071   1.948  1.00  0.00     0.067 H 
ATOM     21  H   UNL     1       1.940   0.046  -2.357  1.00  0.00     0.063 H 
ATOM     22  H   UNL     1       4.356  -0.405  -2.491  1.00  0.00     0.066 H 
BRANCH  17  23
ATOM     23  O   UNL     1       4.726  -0.554   2.039  1.00  0.00    -0.504 OA
ATOM     24  H   UNL     1       5.664  -0.375   1.863  1.00  0.00     0.293 HD
ENDBRANCH  17  23
BRANCH  19  25
ATOM     25  O   UNL     1       5.962  -0.746  -0.442  1.00  0.00    -0.504 OA
ATOM     26  H   UNL     1       6.271  -1.170   0.374  1.00  0.00     0.293 HD
ENDBRANCH  19  25
ENDBRANCH   5  14
BRANCH   6  27
ATOM     27  O   UNL     1       0.732   2.665  -0.069  1.00  0.00    -0.502 OA
ATOM     28  H   UNL     1       1.667   2.412  -0.123  1.00  0.00     0.293 HD
ENDBRANCH   6  27
BRANCH   8  29
ATOM     29  O   UNL     1      -4.411   1.725   0.169  1.00  0.00    -0.507 OA
ATOM     30  H   UNL     1      -3.796   2.474   0.170  1.00  0.00     0.293 HD
ENDBRANCH   8  29
BRANCH  10  31
ATOM     31  O   UNL     1      -4.554  -3.018   0.006  1.00  0.00    -0.508 OA
ATOM     32  H   UNL     1      -5.499  -2.794   0.060  1.00  0.00     0.293 HD
ENDBRANCH  10  31
TORSDOF 6
