REMARK SMILES O=c1ccc2ccc(O)cc2o1
REMARK SMILES IDX 12 1 1 2 5 3 11 4 6 5 10 6 4 7 8 8 7 9 3 10 2 11 9 17
REMARK H PARENT 6 12 10 13 4 14 7 15 3 16 9 18
ROOT
ATOM      1  O   UNL     1      -1.195   1.174  -0.001  1.00  0.00    -0.423 OA
ATOM      2  O   UNL     1      -3.486   1.168   0.001  1.00  0.00    -0.246 OA
ATOM      3  C   UNL     1      -0.007  -0.951  -0.000  1.00  0.00     0.018 A 
ATOM      4  C   UNL     1       0.010   0.442  -0.000  1.00  0.00     0.142 A 
ATOM      5  C   UNL     1       1.208  -1.640   0.000  1.00  0.00    -0.048 A 
ATOM      6  C   UNL     1       1.204   1.161  -0.000  1.00  0.00     0.023 A 
ATOM      7  C   UNL     1      -1.288  -1.636   0.000  1.00  0.00    -0.044 A 
ATOM      8  C   UNL     1       2.410   0.465   0.000  1.00  0.00     0.119 A 
ATOM      9  C   UNL     1       2.413  -0.932   0.000  1.00  0.00    -0.019 A 
ATOM     10  C   UNL     1      -2.425  -0.935   0.000  1.00  0.00     0.024 A 
ATOM     11  C   UNL     1      -2.433   0.539  -0.001  1.00  0.00     0.336 A 
ATOM     12  H   UNL     1       1.232  -2.727   0.000  1.00  0.00     0.063 H 
ATOM     13  H   UNL     1       1.194   2.247  -0.000  1.00  0.00     0.070 H 
ATOM     14  H   UNL     1      -1.305  -2.720   0.001  1.00  0.00     0.063 H 
ATOM     15  H   UNL     1       3.350  -1.483   0.000  1.00  0.00     0.066 H 
ATOM     16  H   UNL     1      -3.385  -1.440   0.000  1.00  0.00     0.070 H 
ENDROOT
BRANCH   8  17
ATOM     17  O   UNL     1       3.589   1.146   0.001  1.00  0.00    -0.508 OA
ATOM     18  H   UNL     1       4.322   0.507   0.001  1.00  0.00     0.293 HD
ENDBRANCH   8  17
TORSDOF 1
